
  ******************************************************************
  *                           E P A N E T                          *
  *                   Hydraulic and Water Quality                  *
  *                   Analysis for Pipe Networks                   *
  *                         Version 3.0.000                        *
  ******************************************************************

  Any Town Model. Initial model for ANN training
  Tank levels unlimited. Optimisated results

    speed pattern
    speed pattern
    speed pattern
    speed pattern
    speed pattern
    speed pattern
    speed pattern
    speed pattern
    speed pattern
    speed pattern
    speed pattern
    speed pattern
    speed pattern
    speed pattern
    speed pattern
    speed pattern
    speed pattern
    speed pattern
  Simulation completed in 0.00815 sec.